omf/static/testFiles/inTest_R4-25.00-1_CLEAN.glm
// PNNL Taxonomic Feeder R4-25.00-1

clock {
	timezone PST+8PDT;
	starttime '2009-01-01 12:00:00';
	stoptime '2009-01-01 12:15:00';
};

#set profiler=1module assert;
module tape;
module powerflow {
	solver_method NR;
	default_maximum_voltage_error 1e-9;
};

object regulator {
	phases ABCN;
	from R4-25-00-1_node_231;
	name R4-25-00-1_reg_1;
	to R4-25-00-1_meter_2;
	configuration feeder_reg_cfg;
};

object recorder {
	interval 60;
	name R4-25-00-1_reg_1recorder5;
	parent R4-25-00-1_reg_1;
	limit 144;
	file "inTest_R4_reg_output.csv";
	property tap_A,tap_B,tap_C,power_in_A.real,power_in_A.imag,power_in_B.real,power_in_B.imag,power_in_C.real,power_in_C.imag,power_in.real,power_in.imag;
};

object regulator_configuration {
	Control OUTPUT_VOLTAGE;
	raise_taps 16;
	name feeder_reg_cfg;
	band_center 14435.0;
	tap_pos_A 0;
	tap_pos_B 0;
	connect_type WYE_WYE;
	time_delay 30;
	regulation 0.10;
	lower_taps 16;
	tap_pos_C 0;
	band_width 120.3;
};

object fuse {
	status CLOSED;
	phases CN;
	from R4-25-00-1_node_45;
	name R4-25-00-1_fuse_1;
	current_limit 30;
	to R4-25-00-1_node_94;
};

object fuse {
	status CLOSED;
	phases CN;
	from R4-25-00-1_node_161;
	name R4-25-00-1_fuse_2;
	current_limit 30;
	to R4-25-00-1_node_96;
};

object fuse {
	status CLOSED;
	phases CN;
	from R4-25-00-1_node_162;
	name R4-25-00-1_fuse_3;
	current_limit 30;
	to R4-25-00-1_node_77;
};

object fuse {
	status CLOSED;
	phases CN;
	from R4-25-00-1_node_134;
	name R4-25-00-1_fuse_4;
	current_limit 40;
	to R4-25-00-1_node_78;
};

object fuse {
	status CLOSED;
	phases CN;
	from R4-25-00-1_node_134;
	name R4-25-00-1_fuse_5;
	current_limit 40;
	to R4-25-00-1_node_79;
};

object fuse {
	status CLOSED;
	phases CN;
	from R4-25-00-1_node_48;
	name R4-25-00-1_fuse_6;
	current_limit 40;
	to R4-25-00-1_node_80;
};

object fuse {
	status CLOSED;
	phases CN;
	from R4-25-00-1_node_53;
	name R4-25-00-1_fuse_7;
	current_limit 40;
	to R4-25-00-1_node_81;
};

object fuse {
	status CLOSED;
	phases CN;
	from R4-25-00-1_node_176;
	name R4-25-00-1_fuse_8;
	current_limit 40;
	to R4-25-00-1_node_82;
};

object fuse {
	status CLOSED;
	phases CN;
	from R4-25-00-1_node_49;
	name R4-25-00-1_fuse_9;
	current_limit 40;
	to R4-25-00-1_node_83;
};

object fuse {
	status CLOSED;
	phases CN;
	from R4-25-00-1_node_51;
	name R4-25-00-1_fuse_10;
	current_limit 40;
	to R4-25-00-1_node_84;
};

object fuse {
	status CLOSED;
	phases BN;
	from R4-25-00-1_node_23;
	name R4-25-00-1_fuse_11;
	current_limit 60;
	to R4-25-00-1_node_85;
};

object fuse {
	status CLOSED;
	phases CN;
	from R4-25-00-1_node_32;
	name R4-25-00-1_fuse_12;
	current_limit 60;
	to R4-25-00-1_node_86;
};

object fuse {
	status CLOSED;
	phases BN;
	from R4-25-00-1_node_156;
	name R4-25-00-1_fuse_13;
	current_limit 60;
	to R4-25-00-1_node_87;
};

object fuse {
	status CLOSED;
	phases AN;
	from R4-25-00-1_node_13;
	name R4-25-00-1_fuse_14;
	current_limit 60;
	to R4-25-00-1_node_102;
};

object fuse {
	status CLOSED;
	phases AN;
	from R4-25-00-1_node_13;
	name R4-25-00-1_fuse_15;
	current_limit 60;
	to R4-25-00-1_node_88;
};

object fuse {
	status CLOSED;
	phases BN;
	from R4-25-00-1_node_19;
	name R4-25-00-1_fuse_16;
	current_limit 60;
	to R4-25-00-1_node_89;
};

object fuse {
	status CLOSED;
	phases CN;
	from R4-25-00-1_node_151;
	name R4-25-00-1_fuse_17;
	current_limit 60;
	to R4-25-00-1_node_90;
};

object fuse {
	status CLOSED;
	phases AN;
	from R4-25-00-1_node_154;
	name R4-25-00-1_fuse_18;
	current_limit 60;
	to R4-25-00-1_node_91;
};

object fuse {
	status CLOSED;
	phases CN;
	from R4-25-00-1_node_15;
	name R4-25-00-1_fuse_19;
	current_limit 60;
	to R4-25-00-1_node_92;
};

object fuse {
	status CLOSED;
	phases CN;
	from R4-25-00-1_node_65;
	name R4-25-00-1_fuse_20;
	current_limit 40;
	to R4-25-00-1_node_93;
};

object fuse {
	status CLOSED;
	phases CN;
	from R4-25-00-1_node_38;
	name R4-25-00-1_fuse_21;
	current_limit 40;
	to R4-25-00-1_node_97;
};

object fuse {
	status CLOSED;
	phases CN;
	from R4-25-00-1_node_145;
	name R4-25-00-1_fuse_22;
	current_limit 30;
	to R4-25-00-1_node_98;
};

object fuse {
	status CLOSED;
	phases CN;
	from R4-25-00-1_node_50;
	name R4-25-00-1_fuse_23;
	current_limit 40;
	to R4-25-00-1_node_99;
};

object fuse {
	status CLOSED;
	phases CN;
	from R4-25-00-1_node_40;
	name R4-25-00-1_fuse_24;
	current_limit 30;
	to R4-25-00-1_node_100;
};

object fuse {
	status CLOSED;
	phases CN;
	from R4-25-00-1_node_190;
	name R4-25-00-1_fuse_25;
	current_limit 50;
	to R4-25-00-1_node_101;
};

object fuse {
	status CLOSED;
	phases CN;
	from R4-25-00-1_node_1;
	name R4-25-00-1_fuse_26;
	current_limit 80;
	to R4-25-00-1_node_95;
};

object fuse {
	status CLOSED;
	phases CN;
	from R4-25-00-1_node_46;
	name R4-25-00-1_fuse_27;
	current_limit 30;
	to R4-25-00-1_node_103;
};

object fuse {
	status CLOSED;
	phases CN;
	from R4-25-00-1_node_59;
	name R4-25-00-1_fuse_28;
	current_limit 30;
	to R4-25-00-1_node_76;
};

object line_configuration {
	conductor_N overhead_line_conductor_2;
	spacing line_spacing_8;
	name line_configuration_16;
	conductor_B overhead_line_conductor_2;
};

object line_configuration {
	conductor_N overhead_line_conductor_2;
	spacing line_spacing_9;
	name line_configuration_17;
	conductor_C overhead_line_conductor_2;
};

object line_configuration {
	name line_configuration_18;
	spacing line_spacing_10;
	conductor_N overhead_line_conductor_3;
	conductor_A overhead_line_conductor_3;
	conductor_C overhead_line_conductor_3;
	conductor_B overhead_line_conductor_3;
};

object line_configuration {
	conductor_N overhead_line_conductor_4;
	spacing line_spacing_8;
	name line_configuration_19;
	conductor_B overhead_line_conductor_4;
};

object line_configuration {
	conductor_N overhead_line_conductor_2;
	spacing line_spacing_11;
	conductor_A overhead_line_conductor_2;
	name line_configuration_20;
};

object line_configuration {
	conductor_N overhead_line_conductor_5;
	spacing line_spacing_9;
	name line_configuration_21;
	conductor_C overhead_line_conductor_5;
};

object line_configuration {
	conductor_N overhead_line_conductor_5;
	spacing line_spacing_9;
	name line_configuration_22;
	conductor_C overhead_line_conductor_5;
};

object line_configuration {
	name line_configuration_23;
	spacing line_spacing_12;
	conductor_N overhead_line_conductor_2;
	conductor_A overhead_line_conductor_2;
	conductor_C overhead_line_conductor_2;
};

object line_configuration {
	conductor_N underground_line_conductor_6;
	spacing line_spacing_13;
	name line_configuration_24;
	conductor_C underground_line_conductor_6;
};

object line_configuration {
	conductor_N underground_line_conductor_6;
	spacing line_spacing_9;
	name line_configuration_25;
	conductor_C underground_line_conductor_6;
};

object line_configuration {
	conductor_N underground_line_conductor_6;
	spacing line_spacing_14;
	conductor_A underground_line_conductor_6;
	name line_configuration_26;
};

object line_configuration {
	conductor_N overhead_line_conductor_4;
	spacing line_spacing_11;
	conductor_A overhead_line_conductor_4;
	name line_configuration_27;
};

object line_configuration {
	name line_configuration_28;
	spacing line_spacing_15;
	conductor_N overhead_line_conductor_3;
	conductor_A overhead_line_conductor_3;
	conductor_C overhead_line_conductor_3;
	conductor_B overhead_line_conductor_3;
};

object line_spacing {
	name line_spacing_8;
	distance_BN 48.0 in;
};

object line_spacing {
	distance_CN 48.0 in;
	name line_spacing_9;
};

object line_spacing {
	distance_BC 57.6 in;
	name line_spacing_10;
	distance_CN 48.0 in;
	distance_AN 48.0 in;
	distance_AB 57.6 in;
	distance_BN 48.0 in;
	distance_AC 57.6 in;
};

object line_spacing {
	distance_AN 48.0 in;
	name line_spacing_11;
};

object line_spacing {
	distance_CN 48.0 in;
	distance_AN 48.0 in;
	name line_spacing_12;
	distance_AC 51.6 in;
};

object line_spacing {
	distance_CN 0.0 in;
	name line_spacing_13;
};

object line_spacing {
	distance_AN 0.0 in;
	name line_spacing_14;
};

object line_spacing {
	distance_BC 48.0 in;
	name line_spacing_15;
	distance_CN 48.0 in;
	distance_AN 48.0 in;
	distance_AB 48.0 in;
	distance_BN 48.0 in;
	distance_AC 48.0 in;
};

object load {
	phases ACN;
	load_class C;
	name R4-25-00-1_load_1;
	parent R4-25-00-1_meter_1;
	voltage_C -7188.01+12450j;
	voltage_A 14376.02+0.0j;
	constant_power_C 5000+1000j;
	constant_power_A 5000+1000j;
	nominal_voltage 14376.02;
};

object meter {
	phases ACN;
	name R4-25-00-1_meter_1;
	voltage_C -7188.01+12450j;
	voltage_A 14376.02+0.0j;
	nominal_voltage 14376.02;
};

object meter {
	phases ABCN;
	name R4-25-00-1_meter_2;
	voltage_B -7188.01-12450j;
	voltage_C -7188.01+12450j;
	voltage_A 14376.02+0.0j;
	nominal_voltage 14376.02;
};

object node {
	voltage_C -7188.01+12450j;
	phases CN;
	nominal_voltage 14376.02;
	name R4-25-00-1_node_1;
};

object node {
	phases ABCN;
	name R4-25-00-1_node_2;
	voltage_B -7188.01-12450j;
	voltage_C -7188.01+12450j;
	voltage_A 14376.02+0.0j;
	nominal_voltage 14376.02;
};

object node {
	phases ABCN;
	name R4-25-00-1_node_3;
	voltage_B -7188.01-12450j;
	voltage_C -7188.01+12450j;
	voltage_A 14376.02+0.0j;
	nominal_voltage 14376.02;
};

object node {
	voltage_B -7188.01-12450j;
	phases BN;
	nominal_voltage 14376.02;
	name R4-25-00-1_node_4;
};

object node {
	voltage_B -7188.01-12450j;
	phases BN;
	nominal_voltage 14376.02;
	name R4-25-00-1_node_5;
};

object node {
	voltage_B -7188.01-12450j;
	phases BN;
	nominal_voltage 14376.02;
	name R4-25-00-1_node_6;
};

object node {
	voltage_B -7188.01-12450j;
	phases BN;
	nominal_voltage 14376.02;
	name R4-25-00-1_node_7;
};

object node {
	voltage_B -7188.01-12450j;
	phases BN;
	nominal_voltage 14376.02;
	name R4-25-00-1_node_8;
};

object node {
	voltage_B -7188.01-12450j;
	phases BN;
	nominal_voltage 14376.02;
	name R4-25-00-1_node_9;
};

object node {
	voltage_B -7188.01-12450j;
	phases BN;
	nominal_voltage 14376.02;
	name R4-25-00-1_node_10;
};

object node {
	phases ABCN;
	name R4-25-00-1_node_11;
	voltage_B -7188.01-12450j;
	voltage_C -7188.01+12450j;
	voltage_A 14376.02+0.0j;
	nominal_voltage 14376.02;
};

object node {
	phases ABCN;
	name R4-25-00-1_node_12;
	voltage_B -7188.01-12450j;
	voltage_C -7188.01+12450j;
	voltage_A 14376.02+0.0j;
	nominal_voltage 14376.02;
};

object node {
	phases ABCN;
	name R4-25-00-1_node_13;
	voltage_B -7188.01-12450j;
	voltage_C -7188.01+12450j;
	voltage_A 14376.02+0.0j;
	nominal_voltage 14376.02;
};

object node {
	voltage_C -7188.01+12450j;
	phases CN;
	nominal_voltage 14376.02;
	name R4-25-00-1_node_14;
};

object node {
	phases ABCN;
	name R4-25-00-1_node_15;
	voltage_B -7188.01-12450j;
	voltage_C -7188.01+12450j;
	voltage_A 14376.02+0.0j;
	nominal_voltage 14376.02;
};

object node {
	voltage_C -7188.01+12450j;
	phases CN;
	nominal_voltage 14376.02;
	name R4-25-00-1_node_16;
};

object node {
	phases ABCN;
	name R4-25-00-1_node_17;
	voltage_B -7188.01-12450j;
	voltage_C -7188.01+12450j;
	voltage_A 14376.02+0.0j;
	nominal_voltage 14376.02;
};

object node {
	phases ABCN;
	name R4-25-00-1_node_18;
	voltage_B -7188.01-12450j;
	voltage_C -7188.01+12450j;
	voltage_A 14376.02+0.0j;
	nominal_voltage 14376.02;
};

object node {
	phases ABCN;
	name R4-25-00-1_node_19;
	voltage_B -7188.01-12450j;
	voltage_C -7188.01+12450j;
	voltage_A 14376.02+0.0j;
	nominal_voltage 14376.02;
};

object node {
	phases ABCN;
	name R4-25-00-1_node_20;
	voltage_B -7188.01-12450j;
	voltage_C -7188.01+12450j;
	voltage_A 14376.02+0.0j;
	nominal_voltage 14376.02;
};

object node {
	voltage_B -7188.01-12450j;
	phases BN;
	nominal_voltage 14376.02;
	name R4-25-00-1_node_21;
};

object node {
	phases ABCN;
	name R4-25-00-1_node_22;
	voltage_B -7188.01-12450j;
	voltage_C -7188.01+12450j;
	voltage_A 14376.02+0.0j;
	nominal_voltage 14376.02;
};

object node {
	phases ABCN;
	name R4-25-00-1_node_23;
	voltage_B -7188.01-12450j;
	voltage_C -7188.01+12450j;
	voltage_A 14376.02+0.0j;
	nominal_voltage 14376.02;
};

object node {
	phases ABCN;
	name R4-25-00-1_node_24;
	voltage_B -7188.01-12450j;
	voltage_C -7188.01+12450j;
	voltage_A 14376.02+0.0j;
	nominal_voltage 14376.02;
};

object node {
	voltage_C -7188.01+12450j;
	phases CN;
	nominal_voltage 14376.02;
	name R4-25-00-1_node_25;
};

object node {
	phases ABCN;
	name R4-25-00-1_node_26;
	voltage_B -7188.01-12450j;
	voltage_C -7188.01+12450j;
	voltage_A 14376.02+0.0j;
	nominal_voltage 14376.02;
};

object node {
	voltage_C -7188.01+12450j;
	phases CN;
	nominal_voltage 14376.02;
	name R4-25-00-1_node_27;
};

object node {
	voltage_C -7188.01+12450j;
	phases CN;
	nominal_voltage 14376.02;
	name R4-25-00-1_node_28;
};

object node {
	phases AN;
	nominal_voltage 14376.02;
	name R4-25-00-1_node_29;
	voltage_A 14376.02+0.0j;
};

object node {
	phases ABCN;
	name R4-25-00-1_node_30;
	voltage_B -7188.01-12450j;
	voltage_C -7188.01+12450j;
	voltage_A 14376.02+0.0j;
	nominal_voltage 14376.02;
};

object node {
	phases AN;
	nominal_voltage 14376.02;
	name R4-25-00-1_node_31;
	voltage_A 14376.02+0.0j;
};

object node {
	phases ABCN;
	name R4-25-00-1_node_32;
	voltage_B -7188.01-12450j;
	voltage_C -7188.01+12450j;
	voltage_A 14376.02+0.0j;
	nominal_voltage 14376.02;
};

object node {
	voltage_C -7188.01+12450j;
	phases CN;
	nominal_voltage 14376.02;
	name R4-25-00-1_node_33;
};

object node {
	voltage_C -7188.01+12450j;
	phases CN;
	nominal_voltage 14376.02;
	name R4-25-00-1_node_34;
};

object node {
	voltage_C -7188.01+12450j;
	phases CN;
	nominal_voltage 14376.02;
	name R4-25-00-1_node_35;
};

object node {
	voltage_C -7188.01+12450j;
	phases CN;
	nominal_voltage 14376.02;
	name R4-25-00-1_node_36;
};

object node {
	voltage_C -7188.01+12450j;
	phases CN;
	nominal_voltage 14376.02;
	name R4-25-00-1_node_37;
};

object node {
	voltage_C -7188.01+12450j;
	phases CN;
	nominal_voltage 14376.02;
	name R4-25-00-1_node_38;
};

object node {
	voltage_C -7188.01+12450j;
	phases CN;
	nominal_voltage 14376.02;
	name R4-25-00-1_node_39;
};

object node {
	voltage_C -7188.01+12450j;
	phases CN;
	nominal_voltage 14376.02;
	name R4-25-00-1_node_40;
};

object node {
	voltage_C -7188.01+12450j;
	phases CN;
	nominal_voltage 14376.02;
	name R4-25-00-1_node_41;
};

object node {
	voltage_C -7188.01+12450j;
	phases CN;
	nominal_voltage 14376.02;
	name R4-25-00-1_node_42;
};

object node {
	voltage_C -7188.01+12450j;
	phases CN;
	nominal_voltage 14376.02;
	name R4-25-00-1_node_43;
};

object node {
	voltage_C -7188.01+12450j;
	phases CN;
	nominal_voltage 14376.02;
	name R4-25-00-1_node_44;
};

object node {
	voltage_C -7188.01+12450j;
	phases CN;
	nominal_voltage 14376.02;
	name R4-25-00-1_node_45;
};

object node {
	voltage_C -7188.01+12450j;
	phases CN;
	nominal_voltage 14376.02;
	name R4-25-00-1_node_46;
};

object node {
	voltage_C -7188.01+12450j;
	phases CN;
	nominal_voltage 14376.02;
	name R4-25-00-1_node_47;
};

object node {
	voltage_C -7188.01+12450j;
	phases CN;
	nominal_voltage 14376.02;
	name R4-25-00-1_node_48;
};

object node {
	voltage_C -7188.01+12450j;
	phases CN;
	nominal_voltage 14376.02;
	name R4-25-00-1_node_49;
};

object node {
	voltage_C -7188.01+12450j;
	phases CN;
	nominal_voltage 14376.02;
	name R4-25-00-1_node_50;
};

object node {
	voltage_C -7188.01+12450j;
	phases CN;
	nominal_voltage 14376.02;
	name R4-25-00-1_node_51;
};

object node {
	voltage_C -7188.01+12450j;
	phases CN;
	nominal_voltage 14376.02;
	name R4-25-00-1_node_52;
};

object node {
	voltage_C -7188.01+12450j;
	phases CN;
	nominal_voltage 14376.02;
	name R4-25-00-1_node_53;
};

object node {
	voltage_C -7188.01+12450j;
	phases CN;
	nominal_voltage 14376.02;
	name R4-25-00-1_node_54;
};

object node {
	voltage_C -7188.01+12450j;
	phases CN;
	nominal_voltage 14376.02;
	name R4-25-00-1_node_55;
};

object node {
	voltage_C -7188.01+12450j;
	phases CN;
	nominal_voltage 14376.02;
	name R4-25-00-1_node_56;
};

object node {
	voltage_C -7188.01+12450j;
	phases CN;
	nominal_voltage 14376.02;
	name R4-25-00-1_node_57;
};

object node {
	voltage_C -7188.01+12450j;
	phases CN;
	nominal_voltage 14376.02;
	name R4-25-00-1_node_58;
};

object node {
	voltage_C -7188.01+12450j;
	phases CN;
	nominal_voltage 14376.02;
	name R4-25-00-1_node_59;
};

object node {
	voltage_C -7188.01+12450j;
	phases CN;
	nominal_voltage 14376.02;
	name R4-25-00-1_node_60;
};

object node {
	phases CN;
	name R4-25-00-1_node_61;
	voltage_C -7188.01+12450j;
	nominal_voltage 14376.02;
};

object node {
	voltage_C -7188.01+12450j;
	phases CN;
	nominal_voltage 14376.02;
	name R4-25-00-1_node_62;
};

object node {
	voltage_C -7188.01+12450j;
	phases CN;
	nominal_voltage 14376.02;
	name R4-25-00-1_node_63;
};

object node {
	voltage_C -7188.01+12450j;
	phases CN;
	nominal_voltage 14376.02;
	name R4-25-00-1_node_64;
};

object node {
	voltage_C -7188.01+12450j;
	phases CN;
	nominal_voltage 14376.02;
	name R4-25-00-1_node_65;
};

object node {
	voltage_C -7188.01+12450j;
	phases CN;
	nominal_voltage 14376.02;
	name R4-25-00-1_node_66;
};

object node {
	voltage_C -7188.01+12450j;
	phases CN;
	nominal_voltage 14376.02;
	name R4-25-00-1_node_67;
};

object node {
	voltage_C -7188.01+12450j;
	phases CN;
	nominal_voltage 14376.02;
	name R4-25-00-1_node_68;
};

object node {
	voltage_C -7188.01+12450j;
	phases CN;
	nominal_voltage 14376.02;
	name R4-25-00-1_node_69;
};

object node {
	voltage_C -7188.01+12450j;
	phases CN;
	nominal_voltage 14376.02;
	name R4-25-00-1_node_70;
};

object node {
	voltage_C -7188.01+12450j;
	phases CN;
	nominal_voltage 14376.02;
	name R4-25-00-1_node_71;
};

object node {
	phases ABCN;
	name R4-25-00-1_node_72;
	voltage_B -7188.01-12450j;
	voltage_C -7188.01+12450j;
	voltage_A 14376.02+0.0j;
	nominal_voltage 14376.02;
};

object node {
	phases ABCN;
	name R4-25-00-1_node_73;
	voltage_B -7188.01-12450j;
	voltage_C -7188.01+12450j;
	voltage_A 14376.02+0.0j;
	nominal_voltage 14376.02;
};

object node {
	phases ABCN;
	name R4-25-00-1_node_74;
	voltage_B -7188.01-12450j;
	voltage_C -7188.01+12450j;
	voltage_A 14376.02+0.0j;
	nominal_voltage 14376.02;
};

object node {
	phases ABCN;
	name R4-25-00-1_node_75;
	voltage_B -7188.01-12450j;
	voltage_C -7188.01+12450j;
	voltage_A 14376.02+0.0j;
	nominal_voltage 14376.02;
};

object node {
	voltage_C -7188.01+12450j;
	phases CN;
	nominal_voltage 14376.02;
	name R4-25-00-1_node_76;
};

object node {
	voltage_C -7188.01+12450j;
	phases CN;
	nominal_voltage 14376.02;
	name R4-25-00-1_node_77;
};

object node {
	voltage_C -7188.01+12450j;
	phases CN;
	nominal_voltage 14376.02;
	name R4-25-00-1_node_78;
};

object node {
	voltage_C -7188.01+12450j;
	phases CN;
	nominal_voltage 14376.02;
	name R4-25-00-1_node_79;
};

object node {
	voltage_C -7188.01+12450j;
	phases CN;
	nominal_voltage 14376.02;
	name R4-25-00-1_node_80;
};

object node {
	voltage_C -7188.01+12450j;
	phases CN;
	nominal_voltage 14376.02;
	name R4-25-00-1_node_81;
};

object node {
	voltage_C -7188.01+12450j;
	phases CN;
	nominal_voltage 14376.02;
	name R4-25-00-1_node_82;
};

object node {
	voltage_C -7188.01+12450j;
	phases CN;
	nominal_voltage 14376.02;
	name R4-25-00-1_node_83;
};

object node {
	voltage_C -7188.01+12450j;
	phases CN;
	nominal_voltage 14376.02;
	name R4-25-00-1_node_84;
};

object node {
	voltage_B -7188.01-12450j;
	phases BN;
	nominal_voltage 14376.02;
	name R4-25-00-1_node_85;
};

object node {
	voltage_C -7188.01+12450j;
	phases CN;
	nominal_voltage 14376.02;
	name R4-25-00-1_node_86;
};

object node {
	voltage_B -7188.01-12450j;
	phases BN;
	nominal_voltage 14376.02;
	name R4-25-00-1_node_87;
};

object node {
	phases AN;
	nominal_voltage 14376.02;
	name R4-25-00-1_node_88;
	voltage_A 14376.02+0.0j;
};

object node {
	voltage_B -7188.01-12450j;
	phases BN;
	nominal_voltage 14376.02;
	name R4-25-00-1_node_89;
};

object node {
	voltage_C -7188.01+12450j;
	phases CN;
	nominal_voltage 14376.02;
	name R4-25-00-1_node_90;
};

object node {
	phases AN;
	nominal_voltage 14376.02;
	name R4-25-00-1_node_91;
	voltage_A 14376.02+0.0j;
};

object node {
	voltage_C -7188.01+12450j;
	phases CN;
	nominal_voltage 14376.02;
	name R4-25-00-1_node_92;
};

object node {
	voltage_C -7188.01+12450j;
	phases CN;
	nominal_voltage 14376.02;
	name R4-25-00-1_node_93;
};

object node {
	voltage_C -7188.01+12450j;
	phases CN;
	nominal_voltage 14376.02;
	name R4-25-00-1_node_94;
};

object node {
	voltage_C -7188.01+12450j;
	phases CN;
	nominal_voltage 14376.02;
	name R4-25-00-1_node_95;
};

object node {
	voltage_C -7188.01+12450j;
	phases CN;
	nominal_voltage 14376.02;
	name R4-25-00-1_node_96;
};

object node {
	voltage_C -7188.01+12450j;
	phases CN;
	nominal_voltage 14376.02;
	name R4-25-00-1_node_97;
};

object node {
	voltage_C -7188.01+12450j;
	phases CN;
	nominal_voltage 14376.02;
	name R4-25-00-1_node_98;
};

object node {
	voltage_C -7188.01+12450j;
	phases CN;
	nominal_voltage 14376.02;
	name R4-25-00-1_node_99;
};

object node {
	voltage_C -7188.01+12450j;
	phases CN;
	nominal_voltage 14376.02;
	name R4-25-00-1_node_100;
};

object node {
	voltage_C -7188.01+12450j;
	phases CN;
	nominal_voltage 14376.02;
	name R4-25-00-1_node_101;
};

object node {
	phases AN;
	nominal_voltage 14376.02;
	name R4-25-00-1_node_102;
	voltage_A 14376.02+0.0j;
};

object node {
	phases CN;
	name R4-25-00-1_node_103;
	voltage_C -7188.01+12450j;
	nominal_voltage 14376.02;
};

object node {
	voltage_C -7188.01+12450j;
	phases CN;
	nominal_voltage 14376.02;
	name R4-25-00-1_node_104;
};

object node {
	voltage_C -7188.01+12450j;
	phases CN;
	nominal_voltage 14376.02;
	name R4-25-00-1_node_105;
};

object node {
	voltage_C -7188.01+12450j;
	phases CN;
	nominal_voltage 14376.02;
	name R4-25-00-1_node_106;
};

object node {
	voltage_B -7188.01-12450j;
	phases BN;
	nominal_voltage 14376.02;
	name R4-25-00-1_node_107;
};

object node {
	voltage_B -7188.01-12450j;
	phases BN;
	nominal_voltage 14376.02;
	name R4-25-00-1_node_108;
};

object node {
	voltage_C -7188.01+12450j;
	phases CN;
	nominal_voltage 14376.02;
	name R4-25-00-1_node_109;
};

object node {
	voltage_B -7188.01-12450j;
	phases BN;
	nominal_voltage 14376.02;
	name R4-25-00-1_node_110;
};

object node {
	phases AN;
	nominal_voltage 14376.02;
	name R4-25-00-1_node_111;
	voltage_A 14376.02+0.0j;
};

object node {
	voltage_B -7188.01-12450j;
	phases BN;
	nominal_voltage 14376.02;
	name R4-25-00-1_node_112;
};

object node {
	voltage_B -7188.01-12450j;
	phases BN;
	nominal_voltage 14376.02;
	name R4-25-00-1_node_113;
};

object node {
	voltage_B -7188.01-12450j;
	phases BN;
	nominal_voltage 14376.02;
	name R4-25-00-1_node_114;
};

object node {
	voltage_B -7188.01-12450j;
	phases BN;
	nominal_voltage 14376.02;
	name R4-25-00-1_node_115;
};

object node {
	voltage_B -7188.01-12450j;
	phases BN;
	nominal_voltage 14376.02;
	name R4-25-00-1_node_116;
};

object node {
	voltage_B -7188.01-12450j;
	phases BN;
	nominal_voltage 14376.02;
	name R4-25-00-1_node_117;
};

object node {
	voltage_B -7188.01-12450j;
	phases BN;
	nominal_voltage 14376.02;
	name R4-25-00-1_node_118;
};

object node {
	voltage_B -7188.01-12450j;
	phases BN;
	nominal_voltage 14376.02;
	name R4-25-00-1_node_119;
};

object node {
	voltage_B -7188.01-12450j;
	phases BN;
	nominal_voltage 14376.02;
	name R4-25-00-1_node_120;
};

object node {
	voltage_B -7188.01-12450j;
	phases BN;
	nominal_voltage 14376.02;
	name R4-25-00-1_node_121;
};

object node {
	voltage_B -7188.01-12450j;
	phases BN;
	nominal_voltage 14376.02;
	name R4-25-00-1_node_122;
};

object node {
	voltage_B -7188.01-12450j;
	phases BN;
	nominal_voltage 14376.02;
	name R4-25-00-1_node_123;
};

object node {
	voltage_B -7188.01-12450j;
	phases BN;
	nominal_voltage 14376.02;
	name R4-25-00-1_node_124;
};

object node {
	voltage_B -7188.01-12450j;
	phases BN;
	nominal_voltage 14376.02;
	name R4-25-00-1_node_125;
};

object node {
	phases AN;
	nominal_voltage 14376.02;
	name R4-25-00-1_node_126;
	voltage_A 14376.02+0.0j;
};

object node {
	phases ABCN;
	name R4-25-00-1_node_127;
	voltage_B -7188.01-12450j;
	voltage_C -7188.01+12450j;
	voltage_A 14376.02+0.0j;
	nominal_voltage 14376.02;
};

object node {
	voltage_B -7188.01-12450j;
	phases BN;
	nominal_voltage 14376.02;
	name R4-25-00-1_node_128;
};

object node {
	voltage_B -7188.01-12450j;
	phases BN;
	nominal_voltage 14376.02;
	name R4-25-00-1_node_129;
};

object node {
	voltage_B -7188.01-12450j;
	phases BN;
	nominal_voltage 14376.02;
	name R4-25-00-1_node_130;
};

object node {
	voltage_B -7188.01-12450j;
	phases BN;
	nominal_voltage 14376.02;
	name R4-25-00-1_node_131;
};

object node {
	voltage_C -7188.01+12450j;
	phases CN;
	nominal_voltage 14376.02;
	name R4-25-00-1_node_132;
};

object node {
	voltage_C -7188.01+12450j;
	phases CN;
	nominal_voltage 14376.02;
	name R4-25-00-1_node_133;
};

object node {
	voltage_C -7188.01+12450j;
	phases CN;
	nominal_voltage 14376.02;
	name R4-25-00-1_node_134;
};

object node {
	voltage_C -7188.01+12450j;
	phases CN;
	nominal_voltage 14376.02;
	name R4-25-00-1_node_135;
};

object node {
	voltage_C -7188.01+12450j;
	phases CN;
	nominal_voltage 14376.02;
	name R4-25-00-1_node_136;
};

object node {
	voltage_C -7188.01+12450j;
	phases CN;
	nominal_voltage 14376.02;
	name R4-25-00-1_node_137;
};

object node {
	voltage_C -7188.01+12450j;
	phases CN;
	nominal_voltage 14376.02;
	name R4-25-00-1_node_138;
};

object node {
	voltage_C -7188.01+12450j;
	phases CN;
	nominal_voltage 14376.02;
	name R4-25-00-1_node_139;
};

object node {
	voltage_C -7188.01+12450j;
	phases CN;
	nominal_voltage 14376.02;
	name R4-25-00-1_node_140;
};

object node {
	voltage_C -7188.01+12450j;
	phases CN;
	nominal_voltage 14376.02;
	name R4-25-00-1_node_141;
};

object node {
	voltage_C -7188.01+12450j;
	phases CN;
	nominal_voltage 14376.02;
	name R4-25-00-1_node_142;
};

object node {
	voltage_C -7188.01+12450j;
	phases CN;
	nominal_voltage 14376.02;
	name R4-25-00-1_node_143;
};

object node {
	voltage_C -7188.01+12450j;
	phases CN;
	nominal_voltage 14376.02;
	name R4-25-00-1_node_144;
};

object node {
	voltage_C -7188.01+12450j;
	phases CN;
	nominal_voltage 14376.02;
	name R4-25-00-1_node_145;
};

object node {
	voltage_C -7188.01+12450j;
	phases CN;
	nominal_voltage 14376.02;
	name R4-25-00-1_node_146;
};

object node {
	voltage_C -7188.01+12450j;
	phases CN;
	nominal_voltage 14376.02;
	name R4-25-00-1_node_147;
};

object node {
	voltage_C -7188.01+12450j;
	phases CN;
	nominal_voltage 14376.02;
	name R4-25-00-1_node_148;
};

object node {
	voltage_C -7188.01+12450j;
	phases CN;
	nominal_voltage 14376.02;
	name R4-25-00-1_node_149;
};

object node {
	voltage_C -7188.01+12450j;
	phases CN;
	nominal_voltage 14376.02;
	name R4-25-00-1_node_150;
};

object node {
	phases ACN;
	name R4-25-00-1_node_151;
	voltage_C -7188.01+12450j;
	voltage_A 14376.02+0.0j;
	nominal_voltage 14376.02;
};

object node {
	voltage_B -7188.01-12450j;
	phases BN;
	nominal_voltage 14376.02;
	name R4-25-00-1_node_152;
};

object node {
	phases AN;
	nominal_voltage 14376.02;
	name R4-25-00-1_node_153;
	voltage_A 14376.02+0.0j;
};

object node {
	phases ABCN;
	name R4-25-00-1_node_154;
	voltage_B -7188.01-12450j;
	voltage_C -7188.01+12450j;
	voltage_A 14376.02+0.0j;
	nominal_voltage 14376.02;
};

object node {
	voltage_C -7188.01+12450j;
	phases CN;
	nominal_voltage 14376.02;
	name R4-25-00-1_node_155;
};

object node {
	phases ABCN;
	name R4-25-00-1_node_156;
	voltage_B -7188.01-12450j;
	voltage_C -7188.01+12450j;
	voltage_A 14376.02+0.0j;
	nominal_voltage 14376.02;
};

object node {
	phases AN;
	nominal_voltage 14376.02;
	name R4-25-00-1_node_157;
	voltage_A 14376.02+0.0j;
};

object node {
	voltage_C -7188.01+12450j;
	phases CN;
	nominal_voltage 14376.02;
	name R4-25-00-1_node_158;
};

object node {
	voltage_C -7188.01+12450j;
	phases CN;
	nominal_voltage 14376.02;
	name R4-25-00-1_node_159;
};

object node {
	voltage_C -7188.01+12450j;
	phases CN;
	nominal_voltage 14376.02;
	name R4-25-00-1_node_160;
};

object node {
	voltage_C -7188.01+12450j;
	phases CN;
	nominal_voltage 14376.02;
	name R4-25-00-1_node_161;
};

object node {
	voltage_C -7188.01+12450j;
	phases CN;
	nominal_voltage 14376.02;
	name R4-25-00-1_node_162;
};

object node {
	voltage_C -7188.01+12450j;
	phases CN;
	nominal_voltage 14376.02;
	name R4-25-00-1_node_163;
};

object node {
	voltage_C -7188.01+12450j;
	phases CN;
	nominal_voltage 14376.02;
	name R4-25-00-1_node_164;
};

object node {
	voltage_C -7188.01+12450j;
	phases CN;
	nominal_voltage 14376.02;
	name R4-25-00-1_node_165;
};

object node {
	voltage_C -7188.01+12450j;
	phases CN;
	nominal_voltage 14376.02;
	name R4-25-00-1_node_166;
};

object node {
	voltage_C -7188.01+12450j;
	phases CN;
	nominal_voltage 14376.02;
	name R4-25-00-1_node_167;
};

object node {
	voltage_C -7188.01+12450j;
	phases CN;
	nominal_voltage 14376.02;
	name R4-25-00-1_node_168;
};

object node {
	voltage_C -7188.01+12450j;
	phases CN;
	nominal_voltage 14376.02;
	name R4-25-00-1_node_169;
};

object node {
	voltage_C -7188.01+12450j;
	phases CN;
	nominal_voltage 14376.02;
	name R4-25-00-1_node_170;
};

object node {
	voltage_C -7188.01+12450j;
	phases CN;
	nominal_voltage 14376.02;
	name R4-25-00-1_node_171;
};

object node {
	voltage_C -7188.01+12450j;
	phases CN;
	nominal_voltage 14376.02;
	name R4-25-00-1_node_172;
};

object node {
	voltage_C -7188.01+12450j;
	phases CN;
	nominal_voltage 14376.02;
	name R4-25-00-1_node_173;
};

object node {
	voltage_C -7188.01+12450j;
	phases CN;
	nominal_voltage 14376.02;
	name R4-25-00-1_node_174;
};

object node {
	voltage_C -7188.01+12450j;
	phases CN;
	nominal_voltage 14376.02;
	name R4-25-00-1_node_175;
};

object node {
	voltage_C -7188.01+12450j;
	phases CN;
	nominal_voltage 14376.02;
	name R4-25-00-1_node_176;
};

object node {
	voltage_C -7188.01+12450j;
	phases CN;
	nominal_voltage 14376.02;
	name R4-25-00-1_node_177;
};

object node {
	voltage_B -7188.01-12450j;
	phases BN;
	nominal_voltage 14376.02;
	name R4-25-00-1_node_178;
};

object node {
	voltage_C -7188.01+12450j;
	phases CN;
	nominal_voltage 14376.02;
	name R4-25-00-1_node_179;
};

object node {
	voltage_C -7188.01+12450j;
	phases CN;
	nominal_voltage 14376.02;
	name R4-25-00-1_node_180;
};

object node {
	voltage_C -7188.01+12450j;
	phases CN;
	nominal_voltage 14376.02;
	name R4-25-00-1_node_181;
};

object node {
	voltage_C -7188.01+12450j;
	phases CN;
	nominal_voltage 14376.02;
	name R4-25-00-1_node_182;
};

object node {
	voltage_C -7188.01+12450j;
	phases CN;
	nominal_voltage 14376.02;
	name R4-25-00-1_node_183;
};

object node {
	voltage_C -7188.01+12450j;
	phases CN;
	nominal_voltage 14376.02;
	name R4-25-00-1_node_184;
};

object node {
	voltage_C -7188.01+12450j;
	phases CN;
	nominal_voltage 14376.02;
	name R4-25-00-1_node_185;
};

object node {
	phases ABCN;
	name R4-25-00-1_node_186;
	voltage_B -7188.01-12450j;
	voltage_C -7188.01+12450j;
	voltage_A 14376.02+0.0j;
	nominal_voltage 14376.02;
};

object node {
	phases ABCN;
	name R4-25-00-1_node_187;
	voltage_B -7188.01-12450j;
	voltage_C -7188.01+12450j;
	voltage_A 14376.02+0.0j;
	nominal_voltage 14376.02;
};

object node {
	phases ABCN;
	name R4-25-00-1_node_188;
	voltage_B -7188.01-12450j;
	voltage_C -7188.01+12450j;
	voltage_A 14376.02+0.0j;
	nominal_voltage 14376.02;
};

object node {
	phases ABCN;
	name R4-25-00-1_node_189;
	voltage_B -7188.01-12450j;
	voltage_C -7188.01+12450j;
	voltage_A 14376.02+0.0j;
	nominal_voltage 14376.02;
};

object node {
	voltage_C -7188.01+12450j;
	phases CN;
	nominal_voltage 14376.02;
	name R4-25-00-1_node_190;
};

object node {
	voltage_C -7188.01+12450j;
	phases CN;
	nominal_voltage 14376.02;
	name R4-25-00-1_node_191;
};

object node {
	voltage_C -7188.01+12450j;
	phases CN;
	nominal_voltage 14376.02;
	name R4-25-00-1_node_192;
};

object node {
	voltage_C -7188.01+12450j;
	phases CN;
	nominal_voltage 14376.02;
	name R4-25-00-1_node_193;
};

object node {
	voltage_C -7188.01+12450j;
	phases CN;
	nominal_voltage 14376.02;
	name R4-25-00-1_node_194;
};

object node {
	voltage_C -7188.01+12450j;
	phases CN;
	nominal_voltage 14376.02;
	name R4-25-00-1_node_195;
};

object node {
	voltage_C -7188.01+12450j;
	phases CN;
	nominal_voltage 14376.02;
	name R4-25-00-1_node_196;
};

object node {
	voltage_C -7188.01+12450j;
	phases CN;
	nominal_voltage 14376.02;
	name R4-25-00-1_node_197;
};

object node {
	voltage_C -7188.01+12450j;
	phases CN;
	nominal_voltage 14376.02;
	name R4-25-00-1_node_198;
};

object node {
	voltage_C -7188.01+12450j;
	phases CN;
	nominal_voltage 14376.02;
	name R4-25-00-1_node_199;
};

object node {
	voltage_C -7188.01+12450j;
	phases CN;
	nominal_voltage 14376.02;
	name R4-25-00-1_node_200;
};

object node {
	voltage_C -7188.01+12450j;
	phases CN;
	nominal_voltage 14376.02;
	name R4-25-00-1_node_201;
};

object node {
	voltage_C -7188.01+12450j;
	phases CN;
	nominal_voltage 14376.02;
	name R4-25-00-1_node_202;
};

object node {
	voltage_C -7188.01+12450j;
	phases CN;
	nominal_voltage 14376.02;
	name R4-25-00-1_node_203;
};

object node {
	voltage_C -7188.01+12450j;
	phases CN;
	nominal_voltage 14376.02;
	name R4-25-00-1_node_204;
};

object node {
	voltage_C -7188.01+12450j;
	phases CN;
	nominal_voltage 14376.02;
	name R4-25-00-1_node_205;
};

object node {
	voltage_C -7188.01+12450j;
	phases CN;
	nominal_voltage 14376.02;
	name R4-25-00-1_node_206;
};

object node {
	voltage_C -7188.01+12450j;
	phases CN;
	nominal_voltage 14376.02;
	name R4-25-00-1_node_207;
};

object node {
	voltage_C -7188.01+12450j;
	phases CN;
	nominal_voltage 14376.02;
	name R4-25-00-1_node_208;
};

object node {
	voltage_C -7188.01+12450j;
	phases CN;
	nominal_voltage 14376.02;
	name R4-25-00-1_node_209;
};

object node {
	voltage_C -7188.01+12450j;
	phases CN;
	nominal_voltage 14376.02;
	name R4-25-00-1_node_210;
};

object node {
	voltage_C -7188.01+12450j;
	phases CN;
	nominal_voltage 14376.02;
	name R4-25-00-1_node_211;
};

object node {
	voltage_C -7188.01+12450j;
	phases CN;
	nominal_voltage 14376.02;
	name R4-25-00-1_node_212;
};

object node {
	voltage_C -7188.01+12450j;
	phases CN;
	nominal_voltage 14376.02;
	name R4-25-00-1_node_213;
};

object node {
	voltage_C -7188.01+12450j;
	phases CN;
	nominal_voltage 14376.02;
	name R4-25-00-1_node_214;
};

object node {
	voltage_C -7188.01+12450j;
	phases CN;
	nominal_voltage 14376.02;
	name R4-25-00-1_node_215;
};

object node {
	voltage_C -7188.01+12450j;
	phases CN;
	nominal_voltage 14376.02;
	name R4-25-00-1_node_216;
};

object node {
	voltage_C -7188.01+12450j;
	phases CN;
	nominal_voltage 14376.02;
	name R4-25-00-1_node_217;
};

object node {
	voltage_C -7188.01+12450j;
	phases CN;
	nominal_voltage 14376.02;
	name R4-25-00-1_node_218;
};

object node {
	voltage_C -7188.01+12450j;
	phases CN;
	nominal_voltage 14376.02;
	name R4-25-00-1_node_219;
};

object node {
	phases AN;
	nominal_voltage 14376.02;
	name R4-25-00-1_node_220;
	voltage_A 14376.02+0.0j;
};

object node {
	voltage_C -7188.01+12450j;
	phases CN;
	nominal_voltage 14376.02;
	name R4-25-00-1_node_221;
};

object node {
	voltage_C -7188.01+12450j;
	phases CN;
	nominal_voltage 14376.02;
	name R4-25-00-1_node_222;
};

object node {
	voltage_C -7188.01+12450j;
	phases CN;
	nominal_voltage 14376.02;
	name R4-25-00-1_node_223;
};

object node {
	voltage_C -7188.01+12450j;
	phases CN;
	nominal_voltage 14376.02;
	name R4-25-00-1_node_224;
};

object node {
	phases ABCN;
	name R4-25-00-1_node_225;
	voltage_B -7188.01-12450j;
	voltage_C -7188.01+12450j;
	voltage_A 14376.02+0.0j;
	nominal_voltage 14376.02;
};

object node {
	voltage_C -7188.01+12450j;
	phases CN;
	nominal_voltage 14376.02;
	name R4-25-00-1_node_226;
};

object node {
	voltage_C -7188.01+12450j;
	phases CN;
	nominal_voltage 14376.02;
	name R4-25-00-1_node_227;
};

object node {
	voltage_C -7188.01+12450j;
	phases CN;
	nominal_voltage 14376.02;
	name R4-25-00-1_node_228;
};

object node {
	voltage_C -7188.01+12450j;
	phases CN;
	nominal_voltage 14376.02;
	name R4-25-00-1_node_229;
};

object node {
	phases ABCN;
	name R4-25-00-1_node_230;
	parent R4-25-00-1_meter_2;
	voltage_B -7188.01-12450j;
	voltage_C -7188.01+12450j;
	voltage_A 14376.02+0.0j;
	nominal_voltage 14376.02;
};

object node {
	phases ABCN;
	name R4-25-00-1_node_231;
	bustype SWING;
	voltage_B -7188.01-12450j;
	voltage_C -7188.01+12450j;
	voltage_A 14376.02+0.0j;
	nominal_voltage 14376.02;
};

object overhead_line {
	phases BN;
	from R4-25-00-1_node_5;
	name R4-25-00-1_ol_1;
	to R4-25-00-1_node_130;
	length 108.057;
	configuration line_configuration_16;
};

object overhead_line {
	phases BN;
	from R4-25-00-1_node_130;
	name R4-25-00-1_ol_2;
	to R4-25-00-1_node_4;
	length 52.756;
	configuration line_configuration_16;
};

object overhead_line {
	phases CN;
	from R4-25-00-1_node_71;
	name R4-25-00-1_ol_3;
	to R4-25-00-1_node_166;
	length 243.622;
	configuration line_configuration_17;
};

object overhead_line {
	phases CN;
	from R4-25-00-1_node_166;
	name R4-25-00-1_ol_4;
	to R4-25-00-1_node_167;
	length 285.109;
	configuration line_configuration_17;
};

object overhead_line {
	phases CN;
	from R4-25-00-1_node_167;
	name R4-25-00-1_ol_5;
	to R4-25-00-1_node_168;
	length 249.452;
	configuration line_configuration_17;
};

object overhead_line {
	phases CN;
	from R4-25-00-1_node_68;
	name R4-25-00-1_ol_6;
	to R4-25-00-1_node_69;
	length 250.280;
	configuration line_configuration_17;
};

object overhead_line {
	phases CN;
	from R4-25-00-1_node_69;
	name R4-25-00-1_ol_7;
	to R4-25-00-1_node_162;
	length 229.582;
	configuration line_configuration_17;
};

object overhead_line {
	phases CN;
	from R4-25-00-1_node_162;
	name R4-25-00-1_ol_8;
	to R4-25-00-1_node_163;
	length 202.543;
	configuration line_configuration_17;
};

object overhead_line {
	phases CN;
	from R4-25-00-1_node_163;
	name R4-25-00-1_ol_9;
	to R4-25-00-1_node_71;
	length 253.085;
	configuration line_configuration_17;
};

object overhead_line {
	phases CN;
	from R4-25-00-1_node_69;
	name R4-25-00-1_ol_10;
	to R4-25-00-1_node_161;
	length 189.649;
	configuration line_configuration_17;
};

object overhead_line {
	phases ABCN;
	from R4-25-00-1_node_11;
	name R4-25-00-1_ol_11;
	to R4-25-00-1_node_12;
	length 442.207;
	configuration line_configuration_18;
};

object overhead_line {
	phases CN;
	from R4-25-00-1_node_57;
	name R4-25-00-1_ol_12;
	to R4-25-00-1_node_199;
	length 233.246;
	configuration line_configuration_17;
};

object overhead_line {
	phases CN;
	from R4-25-00-1_node_55;
	name R4-25-00-1_ol_13;
	to R4-25-00-1_node_195;
	length 29.791;
	configuration line_configuration_17;
};

object overhead_line {
	phases CN;
	from R4-25-00-1_node_64;
	name R4-25-00-1_ol_14;
	to R4-25-00-1_node_204;
	length 246.808;
	configuration line_configuration_17;
};

object overhead_line {
	phases CN;
	from R4-25-00-1_node_64;
	name R4-25-00-1_ol_15;
	to R4-25-00-1_node_203;
	length 198.611;
	configuration line_configuration_17;
};

object overhead_line {
	phases CN;
	from R4-25-00-1_node_33;
	name R4-25-00-1_ol_16;
	to R4-25-00-1_node_106;
	length 153.368;
	configuration line_configuration_17;
};

object overhead_line {
	phases CN;
	from R4-25-00-1_node_106;
	name R4-25-00-1_ol_17;
	to R4-25-00-1_node_37;
	length 86.082;
	configuration line_configuration_17;
};

object overhead_line {
	phases ABCN;
	from R4-25-00-1_node_23;
	name R4-25-00-1_ol_18;
	to R4-25-00-1_node_22;
	length 157.183;
	configuration line_configuration_18;
};

object overhead_line {
	phases ABCN;
	from R4-25-00-1_node_24;
	name R4-25-00-1_ol_19;
	to R4-25-00-1_node_23;
	length 70.785;
	configuration line_configuration_18;
};

object overhead_line {
	phases BN;
	from R4-25-00-1_node_116;
	name R4-25-00-1_ol_20;
	to R4-25-00-1_node_8;
	length 164.667;
	configuration line_configuration_16;
};

object overhead_line {
	phases BN;
	from R4-25-00-1_node_8;
	name R4-25-00-1_ol_21;
	to R4-25-00-1_node_118;
	length 177.265;
	configuration line_configuration_16;
};

object overhead_line {
	phases BN;
	from R4-25-00-1_node_118;
	name R4-25-00-1_ol_22;
	to R4-25-00-1_node_119;
	length 264.433;
	configuration line_configuration_16;
};

object overhead_line {
	phases BN;
	from R4-25-00-1_node_119;
	name R4-25-00-1_ol_23;
	to R4-25-00-1_node_120;
	length 239.233;
	configuration line_configuration_16;
};

object overhead_line {
	phases BN;
	from R4-25-00-1_node_120;
	name R4-25-00-1_ol_24;
	to R4-25-00-1_node_121;
	length 217.207;
	configuration line_configuration_16;
};

object overhead_line {
	phases BN;
	from R4-25-00-1_node_121;
	name R4-25-00-1_ol_25;
	to R4-25-00-1_node_7;
	length 203.576;
	configuration line_configuration_16;
};

object overhead_line {
	phases BN;
	from R4-25-00-1_node_7;
	name R4-25-00-1_ol_26;
	to R4-25-00-1_node_5;
	length 216.339;
	configuration line_configuration_16;
};

object overhead_line {
	phases BN;
	from R4-25-00-1_node_4;
	name R4-25-00-1_ol_27;
	to R4-25-00-1_node_122;
	length 288.583;
	configuration line_configuration_16;
};

object overhead_line {
	phases BN;
	from R4-25-00-1_node_123;
	name R4-25-00-1_ol_28;
	to R4-25-00-1_node_124;
	length 344.378;
	configuration line_configuration_19;
};

object overhead_line {
	phases BN;
	from R4-25-00-1_node_124;
	name R4-25-00-1_ol_29;
	to R4-25-00-1_node_125;
	length 224.531;
	configuration line_configuration_19;
};

object overhead_line {
	phases BN;
	from R4-25-00-1_node_125;
	name R4-25-00-1_ol_30;
	to R4-25-00-1_node_10;
	length 351.661;
	configuration line_configuration_19;
};

object overhead_line {
	phases BN;
	from R4-25-00-1_node_116;
	name R4-25-00-1_ol_31;
	to R4-25-00-1_node_123;
	length 725.231;
	configuration line_configuration_19;
};

object overhead_line {
	phases ABCN;
	from R4-25-00-1_node_18;
	name R4-25-00-1_ol_32;
	to R4-25-00-1_node_127;
	length 176.244;
	configuration line_configuration_18;
};

object overhead_line {
	phases ABCN;
	from R4-25-00-1_node_30;
	name R4-25-00-1_ol_33;
	to R4-25-00-1_node_32;
	length 222.055;
	configuration line_configuration_18;
};

object overhead_line {
	phases AN;
	from R4-25-00-1_node_32;
	name R4-25-00-1_ol_34;
	to R4-25-00-1_node_31;
	length 183.558;
	configuration line_configuration_20;
};

object overhead_line {
	phases BN;
	from R4-25-00-1_node_10;
	name R4-25-00-1_ol_35;
	to R4-25-00-1_node_131;
	length 210.301;
	configuration line_configuration_19;
};

object overhead_line {
	phases CN;
	from R4-25-00-1_node_71;
	name R4-25-00-1_ol_36;
	to R4-25-00-1_node_164;
	length 160.023;
	configuration line_configuration_17;
};

object overhead_line {
	phases CN;
	from R4-25-00-1_node_71;
	name R4-25-00-1_ol_37;
	to R4-25-00-1_node_165;
	length 314.152;
	configuration line_configuration_17;
};

object overhead_line {
	phases CN;
	from R4-25-00-1_node_37;
	name R4-25-00-1_ol_38;
	to R4-25-00-1_node_137;
	length 408.163;
	configuration line_configuration_17;
};

object overhead_line {
	phases CN;
	from R4-25-00-1_node_137;
	name R4-25-00-1_ol_39;
	to R4-25-00-1_node_38;
	length 145.889;
	configuration line_configuration_17;
};

object overhead_line {
	phases CN;
	from R4-25-00-1_node_35;
	name R4-25-00-1_ol_40;
	to R4-25-00-1_node_1;
	length 324.521;
	configuration line_configuration_21;
};

object overhead_line {
	phases CN;
	from R4-25-00-1_node_1;
	name R4-25-00-1_ol_41;
	to R4-25-00-1_node_135;
	length 461.195;
	configuration line_configuration_21;
};

object overhead_line {
	phases CN;
	from R4-25-00-1_node_134;
	name R4-25-00-1_ol_42;
	to R4-25-00-1_node_45;
	length 688.880;
	configuration line_configuration_22;
};

object overhead_line {
	phases CN;
	from R4-25-00-1_node_45;
	name R4-25-00-1_ol_43;
	to R4-25-00-1_node_47;
	length 132.106;
	configuration line_configuration_22;
};

object overhead_line {
	phases CN;
	from R4-25-00-1_node_135;
	name R4-25-00-1_ol_44;
	to R4-25-00-1_node_144;
	length 635.432;
	configuration line_configuration_17;
};

object overhead_line {
	phases CN;
	from R4-25-00-1_node_144;
	name R4-25-00-1_ol_45;
	to R4-25-00-1_node_143;
	length 356.372;
	configuration line_configuration_17;
};

object overhead_line {
	phases CN;
	from R4-25-00-1_node_143;
	name R4-25-00-1_ol_46;
	to R4-25-00-1_node_145;
	length 213.926;
	configuration line_configuration_17;
};

object overhead_line {
	phases CN;
	from R4-25-00-1_node_44;
	name R4-25-00-1_ol_47;
	to R4-25-00-1_node_142;
	length 502.022;
	configuration line_configuration_17;
};

object overhead_line {
	phases CN;
	from R4-25-00-1_node_135;
	name R4-25-00-1_ol_48;
	to R4-25-00-1_node_141;
	length 338.441;
	configuration line_configuration_21;
};

object overhead_line {
	phases CN;
	from R4-25-00-1_node_141;
	name R4-25-00-1_ol_49;
	to R4-25-00-1_node_42;
	length 151.138;
	configuration line_configuration_21;
};

object overhead_line {
	phases CN;
	from R4-25-00-1_node_42;
	name R4-25-00-1_ol_50;
	to R4-25-00-1_node_134;
	length 658.677;
	configuration line_configuration_21;
};

object overhead_line {
	phases CN;
	from R4-25-00-1_node_48;
	name R4-25-00-1_ol_51;
	to R4-25-00-1_node_52;
	length 530.565;
	configuration line_configuration_22;
};

object overhead_line {
	phases CN;
	from R4-25-00-1_node_47;
	name R4-25-00-1_ol_52;
	to R4-25-00-1_node_48;
	length 94.183;
	configuration line_configuration_22;
};

object overhead_line {
	phases CN;
	from R4-25-00-1_node_52;
	name R4-25-00-1_ol_53;
	to R4-25-00-1_node_50;
	length 156.149;
	configuration line_configuration_17;
};

object overhead_line {
	phases CN;
	from R4-25-00-1_node_43;
	name R4-25-00-1_ol_54;
	to R4-25-00-1_node_41;
	length 130.257;
	configuration line_configuration_17;
};

object overhead_line {
	phases CN;
	from R4-25-00-1_node_41;
	name R4-25-00-1_ol_55;
	to R4-25-00-1_node_177;
	length 649.561;
	configuration line_configuration_17;
};

object overhead_line {
	phases CN;
	from R4-25-00-1_node_52;
	name R4-25-00-1_ol_56;
	to R4-25-00-1_node_53;
	length 396.183;
	configuration line_configuration_22;
};

object overhead_line {
	phases CN;
	from R4-25-00-1_node_53;
	name R4-25-00-1_ol_57;
	to R4-25-00-1_node_171;
	length 366.048;
	configuration line_configuration_22;
};

object overhead_line {
	phases CN;
	from R4-25-00-1_node_171;
	name R4-25-00-1_ol_58;
	to R4-25-00-1_node_51;
	length 790.851;
	configuration line_configuration_22;
};

object overhead_line {
	phases CN;
	from R4-25-00-1_node_51;
	name R4-25-00-1_ol_59;
	to R4-25-00-1_node_49;
	length 204.207;
	configuration line_configuration_22;
};

object overhead_line {
	phases CN;
	from R4-25-00-1_node_49;
	name R4-25-00-1_ol_60;
	to R4-25-00-1_node_176;
	length 546.170;
	configuration line_configuration_22;
};

object overhead_line {
	phases CN;
	from R4-25-00-1_node_176;
	name R4-25-00-1_ol_61;
	to R4-25-00-1_node_174;
	length 185.532;
	configuration line_configuration_22;
};

object overhead_line {
	phases CN;
	from R4-25-00-1_node_174;
	name R4-25-00-1_ol_62;
	to R4-25-00-1_node_66;
	length 255.765;
	configuration line_configuration_22;
};

object overhead_line {
	phases ABCN;
	from R4-25-00-1_node_19;
	name R4-25-00-1_ol_63;
	to R4-25-00-1_node_18;
	length 100.019;
	configuration line_configuration_18;
};

object overhead_line {
	phases ABCN;
	from R4-25-00-1_node_22;
	name R4-25-00-1_ol_64;
	to R4-25-00-1_node_19;
	length 191.000;
	configuration line_configuration_18;
};

object overhead_line {
	phases ABCN;
	from R4-25-00-1_node_189;
	name R4-25-00-1_ol_65;
	to R4-25-00-1_node_24;
	length 104.060;
	configuration line_configuration_18;
};

object overhead_line {
	phases ABCN;
	from R4-25-00-1_node_188;
	name R4-25-00-1_ol_66;
	to R4-25-00-1_node_189;
	length 169.691;
	configuration line_configuration_18;
};

object overhead_line {
	phases ABCN;
	from R4-25-00-1_node_187;
	name R4-25-00-1_ol_67;
	to R4-25-00-1_node_188;
	length 264.405;
	configuration line_configuration_18;
};

object overhead_line {
	phases ABCN;
	from R4-25-00-1_node_187;
	name R4-25-00-1_ol_68;
	to R4-25-00-1_node_186;
	length 399.836;
	configuration line_configuration_18;
};

object overhead_line {
	phases ABCN;
	from R4-25-00-1_node_186;
	name R4-25-00-1_ol_69;
	to R4-25-00-1_node_30;
	length 88.180;
	configuration line_configuration_18;
};

object overhead_line {
	phases ABCN;
	from R4-25-00-1_node_26;
	name R4-25-00-1_ol_70;
	to R4-25-00-1_node_187;
	length 555.870;
	configuration line_configuration_18;
};

object overhead_line {
	phases ABCN;
	from R4-25-00-1_node_225;
	name R4-25-00-1_ol_71;
	to R4-25-00-1_node_26;
	length 150.429;
	configuration line_configuration_18;
};

object overhead_line {
	phases ABCN;
	from R4-25-00-1_node_20;
	name R4-25-00-1_ol_72;
	to R4-25-00-1_node_225;
	length 319.451;
	configuration line_configuration_18;
};

object overhead_line {
	phases ACN;
	from R4-25-00-1_node_20;
	name R4-25-00-1_ol_73;
	to R4-25-00-1_node_151;
	length 329.400;
	configuration line_configuration_23;
};

object overhead_line {
	phases ABCN;
	from R4-25-00-1_node_17;
	name R4-25-00-1_ol_74;
	to R4-25-00-1_node_20;
	length 348.494;
	configuration line_configuration_18;
};

object overhead_line {
	phases CN;
	from R4-25-00-1_node_17;
	name R4-25-00-1_ol_75;
	to R4-25-00-1_node_179;
	length 164.759;
	configuration line_configuration_21;
};

object overhead_line {
	phases CN;
	from R4-25-00-1_node_179;
	name R4-25-00-1_ol_76;
	to R4-25-00-1_node_25;
	length 394.866;
	configuration line_configuration_21;
};

object overhead_line {
	phases ABCN;
	from R4-25-00-1_node_12;
	name R4-25-00-1_ol_77;
	to R4-25-00-1_node_156;
	length 651.719;
	configuration line_configuration_18;
};

object overhead_line {
	phases ABCN;
	from R4-25-00-1_node_154;
	name R4-25-00-1_ol_78;
	to R4-25-00-1_node_17;
	length 379.976;
	configuration line_configuration_18;
};

object overhead_line {
	phases ABCN;
	from R4-25-00-1_node_15;
	name R4-25-00-1_ol_79;
	to R4-25-00-1_node_154;
	length 582.940;
	configuration line_configuration_18;
};

object overhead_line {
	phases ABCN;
	from R4-25-00-1_node_13;
	name R4-25-00-1_ol_80;
	to R4-25-00-1_node_15;
	length 294.574;
	configuration line_configuration_18;
};

object overhead_line {
	phases ABCN;
	from R4-25-00-1_node_156;
	name R4-25-00-1_ol_81;
	to R4-25-00-1_node_13;
	length 426.671;
	configuration line_configuration_18;
};

object overhead_line {
	phases ABCN;
	from R4-25-00-1_node_75;
	name R4-25-00-1_ol_82;
	to R4-25-00-1_node_11;
	length 503.492;
	configuration line_configuration_18;
};

object overhead_line {
	phases CN;
	from R4-25-00-1_node_54;
	name R4-25-00-1_ol_83;
	to R4-25-00-1_node_57;
	length 106.712;
	configuration line_configuration_17;
};

object overhead_line {
	phases CN;
	from R4-25-00-1_node_57;
	name R4-25-00-1_ol_84;
	to R4-25-00-1_node_201;
	length 354.559;
	configuration line_configuration_17;
};

object overhead_line {
	phases CN;
	from R4-25-00-1_node_201;
	name R4-25-00-1_ol_85;
	to R4-25-00-1_node_202;
	length 246.418;
	configuration line_configuration_17;
};

object overhead_line {
	phases CN;
	from R4-25-00-1_node_202;
	name R4-25-00-1_ol_86;
	to R4-25-00-1_node_200;
	length 221.436;
	configuration line_configuration_17;
};

object overhead_line {
	phases CN;
	from R4-25-00-1_node_66;
	name R4-25-00-1_ol_87;
	to R4-25-00-1_node_65;
	length 234.027;
	configuration line_configuration_22;
};

object overhead_line {
	phases CN;
	from R4-25-00-1_node_65;
	name R4-25-00-1_ol_88;
	to R4-25-00-1_node_64;
	length 773.583;
	configuration line_configuration_17;
};

object overhead_line {
	phases CN;
	from R4-25-00-1_node_64;
	name R4-25-00-1_ol_89;
	to R4-25-00-1_node_62;
	length 725.193;
	configuration line_configuration_17;
};

object overhead_line {
	phases CN;
	from R4-25-00-1_node_62;
	name R4-25-00-1_ol_90;
	to R4-25-00-1_node_61;
	length 135.186;
	configuration line_configuration_17;
};

object overhead_line {
	phases CN;
	from R4-25-00-1_node_61;
	name R4-25-00-1_ol_91;
	to R4-25-00-1_node_197;
	length 185.098;
	configuration line_configuration_17;
};

object overhead_line {
	phases CN;
	from R4-25-00-1_node_197;
	name R4-25-00-1_ol_92;
	to R4-25-00-1_node_198;
	length 165.189;
	configuration line_configuration_17;
};

object overhead_line {
	phases CN;
	from R4-25-00-1_node_198;
	name R4-25-00-1_ol_93;
	to R4-25-00-1_node_60;
	length 419.226;
	configuration line_configuration_17;
};

object overhead_line {
	phases CN;
	from R4-25-00-1_node_60;
	name R4-25-00-1_ol_94;
	to R4-25-00-1_node_63;
	length 554.460;
	configuration line_configuration_17;
};

object overhead_line {
	phases BN;
	from R4-25-00-1_node_6;
	name R4-25-00-1_ol_95;
	to R4-25-00-1_node_129;
	length 63.771;
	configuration line_configuration_16;
};

object overhead_line {
	phases CN;
	from R4-25-00-1_node_69;
	name R4-25-00-1_ol_96;
	to R4-25-00-1_node_160;
	length 161.657;
	configuration line_configuration_17;
};

object overhead_line {
	phases CN;
	from R4-25-00-1_node_67;
	name R4-25-00-1_ol_97;
	to R4-25-00-1_node_205;
	length 223.412;
	configuration line_configuration_17;
};

object overhead_line {
	phases CN;
	from R4-25-00-1_node_61;
	name R4-25-00-1_ol_98;
	to R4-25-00-1_node_208;
	length 259.420;
	configuration line_configuration_17;
};

object overhead_line {
	phases CN;
	from R4-25-00-1_node_61;
	name R4-25-00-1_ol_99;
	to R4-25-00-1_node_209;
	length 415.574;
	configuration line_configuration_17;
};

object overhead_line {
	phases CN;
	from R4-25-00-1_node_60;
	name R4-25-00-1_ol_100;
	to R4-25-00-1_node_196;
	length 200.943;
	configuration line_configuration_17;
};

object overhead_line {
	phases AN;
	from R4-25-00-1_node_127;
	name R4-25-00-1_ol_101;
	to R4-25-00-1_node_126;
	length 156.563;
	configuration line_configuration_20;
};

object overhead_line {
	phases BN;
	from R4-25-00-1_node_128;
	name R4-25-00-1_ol_102;
	to R4-25-00-1_node_112;
	length 164.429;
	configuration line_configuration_16;
};

object overhead_line {
	phases BN;
	from R4-25-00-1_node_21;
	name R4-25-00-1_ol_103;
	to R4-25-00-1_node_107;
	length 387.383;
	configuration line_configuration_16;
};

object overhead_line {
	phases BN;
	from R4-25-00-1_node_9;
	name R4-25-00-1_ol_104;
	to R4-25-00-1_node_110;
	length 396.256;
	configuration line_configuration_16;
};

object overhead_line {
	phases BN;
	from R4-25-00-1_node_114;
	name R4-25-00-1_ol_105;
	to R4-25-00-1_node_108;
	length 741.033;
	configuration line_configuration_16;
};

object overhead_line {
	phases BN;
	from R4-25-00-1_node_8;
	name R4-25-00-1_ol_106;
	to R4-25-00-1_node_117;
	length 108.800;
	configuration line_configuration_16;
};

object overhead_line {
	phases BN;
	from R4-25-00-1_node_7;
	name R4-25-00-1_ol_107;
	to R4-25-00-1_node_6;
	length 99.141;
	configuration line_configuration_16;
};

object overhead_line {
	phases AN;
	from R4-25-00-1_node_29;
	name R4-25-00-1_ol_108;
	to R4-25-00-1_node_111;
	length 140.961;
	configuration line_configuration_20;
};

object overhead_line {
	phases CN;
	from R4-25-00-1_node_14;
	name R4-25-00-1_ol_109;
	to R4-25-00-1_node_109;
	length 211.914;
	configuration line_configuration_17;
};

object overhead_line {
	phases CN;
	from R4-25-00-1_node_132;
	name R4-25-00-1_ol_110;
	to R4-25-00-1_node_133;
	length 222.965;
	configuration line_configuration_17;
};

object overhead_line {
	phases CN;
	from R4-25-00-1_node_134;
	name R4-25-00-1_ol_111;
	to R4-25-00-1_node_146;
	length 240.417;
	configuration line_configuration_17;
};

object overhead_line {
	phases CN;
	from R4-25-00-1_node_45;
	name R4-25-00-1_ol_112;
	to R4-25-00-1_node_148;
	length 161.161;
	configuration line_configuration_17;
};

object overhead_line {
	phases CN;
	from R4-25-00-1_node_53;
	name R4-25-00-1_ol_113;
	to R4-25-00-1_node_170;
	length 605.391;
	configuration line_configuration_17;
};

object overhead_line {
	phases CN;
	from R4-25-00-1_node_41;
	name R4-25-00-1_ol_114;
	to R4-25-00-1_node_40;
	length 65.443;
	configuration line_configuration_17;
};

object overhead_line {
	phases AN;
	from R4-25-00-1_node_186;
	name R4-25-00-1_ol_115;
	to R4-25-00-1_node_29;
	length 51.567;
	configuration line_configuration_20;
};

object overhead_line {
	phases CN;
	from R4-25-00-1_node_26;
	name R4-25-00-1_ol_116;
	to R4-25-00-1_node_183;
	length 290.724;
	configuration line_configuration_17;
};

object overhead_line {
	phases CN;
	from R4-25-00-1_node_16;
	name R4-25-00-1_ol_117;
	to R4-25-00-1_node_193;
	length 371.299;
	configuration line_configuration_17;
};

object overhead_line {
	phases CN;
	from R4-25-00-1_node_193;
	name R4-25-00-1_ol_118;
	to R4-25-00-1_node_184;
	length 95.689;
	configuration line_configuration_17;
};

object overhead_line {
	phases CN;
	from R4-25-00-1_node_184;
	name R4-25-00-1_ol_119;
	to R4-25-00-1_node_14;
	length 137.865;
	configuration line_configuration_17;
};

object overhead_line {
	phases CN;
	from R4-25-00-1_node_27;
	name R4-25-00-1_ol_120;
	to R4-25-00-1_node_182;
	length 274.289;
	configuration line_configuration_17;
};

object overhead_line {
	phases CN;
	from R4-25-00-1_node_28;
	name R4-25-00-1_ol_121;
	to R4-25-00-1_node_180;
	length 214.636;
	configuration line_configuration_17;
};

object overhead_line {
	phases CN;
	from R4-25-00-1_node_181;
	name R4-25-00-1_ol_122;
	to R4-25-00-1_node_190;
	length 196.206;
	configuration line_configuration_17;
};

object overhead_line {
	phases CN;
	from R4-25-00-1_node_226;
	name R4-25-00-1_ol_123;
	to R4-25-00-1_node_185;
	length 110.676;
	configuration line_configuration_17;
};

object overhead_line {
	phases CN;
	from R4-25-00-1_node_201;
	name R4-25-00-1_ol_124;
	to R4-25-00-1_node_194;
	length 750.718;
	configuration line_configuration_17;
};

object overhead_line {
	phases CN;
	from R4-25-00-1_node_77;
	name R4-25-00-1_ol_125;
	to R4-25-00-1_node_70;
	length 85.429;
	configuration line_configuration_17;
};

object overhead_line {
	phases CN;
	from R4-25-00-1_node_78;
	name R4-25-00-1_ol_126;
	to R4-25-00-1_node_147;
	length 220.411;
	configuration line_configuration_17;
};

object overhead_line {
	phases CN;
	from R4-25-00-1_node_58;
	name R4-25-00-1_ol_127;
	to R4-25-00-1_node_140;
	length 207.862;
	configuration line_configuration_17;
};

object overhead_line {
	phases CN;
	from R4-25-00-1_node_147;
	name R4-25-00-1_ol_128;
	to R4-25-00-1_node_132;
	length 132.336;
	configuration line_configuration_17;
};

object overhead_line {
	phases CN;
	from R4-25-00-1_node_132;
	name R4-25-00-1_ol_129;
	to R4-25-00-1_node_139;
	length 290.955;
	configuration line_configuration_17;
};

object overhead_line {
	phases CN;
	from R4-25-00-1_node_139;
	name R4-25-00-1_ol_130;
	to R4-25-00-1_node_46;
	length 226.491;
	configuration line_configuration_17;
};

object overhead_line {
	phases CN;
	from R4-25-00-1_node_46;
	name R4-25-00-1_ol_131;
	to R4-25-00-1_node_136;
	length 697.185;
	configuration line_configuration_17;
};

object overhead_line {
	phases CN;
	from R4-25-00-1_node_136;
	name R4-25-00-1_ol_132;
	to R4-25-00-1_node_44;
	length 329.166;
	configuration line_configuration_17;
};

object overhead_line {
	phases CN;
	from R4-25-00-1_node_44;
	name R4-25-00-1_ol_133;
	to R4-25-00-1_node_58;
	length 295.071;
	configuration line_configuration_17;
};

object overhead_line {
	phases CN;
	from R4-25-00-1_node_79;
	name R4-25-00-1_ol_134;
	to R4-25-00-1_node_43;
	length 585.407;
	configuration line_configuration_17;
};

object overhead_line {
	phases CN;
	from R4-25-00-1_node_80;
	name R4-25-00-1_ol_135;
	to R4-25-00-1_node_169;
	length 430.989;
	configuration line_configuration_17;
};

object overhead_line {
	phases CN;
	from R4-25-00-1_node_169;
	name R4-25-00-1_ol_136;
	to R4-25-00-1_node_54;
	length 87.756;
	configuration line_configuration_17;
};

object overhead_line {
	phases CN;
	from R4-25-00-1_node_81;
	name R4-25-00-1_ol_137;
	to R4-25-00-1_node_55;
	length 154.149;
	configuration line_configuration_17;
};

object overhead_line {
	phases CN;
	from R4-25-00-1_node_82;
	name R4-25-00-1_ol_138;
	to R4-25-00-1_node_175;
	length 187.873;
	configuration line_configuration_17;
};

object overhead_line {
	phases CN;
	from R4-25-00-1_node_83;
	name R4-25-00-1_ol_139;
	to R4-25-00-1_node_173;
	length 134.314;
	configuration line_configuration_17;
};

object overhead_line {
	phases CN;
	from R4-25-00-1_node_84;
	name R4-25-00-1_ol_140;
	to R4-25-00-1_node_172;
	length 439.478;
	configuration line_configuration_17;
};

object overhead_line {
	phases BN;
	from R4-25-00-1_node_85;
	name R4-25-00-1_ol_141;
	to R4-25-00-1_node_128;
	length 194.148;
...